data_image0
_chemical_formula_structural       S2Mo2S2
_chemical_formula_sum              "S4 Mo2"
_cell_length_a       3.19073
_cell_length_b       5.52651
_cell_length_c       14.2024
_cell_angle_alpha    90
_cell_angle_beta     90
_cell_angle_gamma    90

_space_group_name_H-M_alt    "P 1"
_space_group_IT_number       1

loop_
  _space_group_symop_operation_xyz
  'x, y, z'

loop_
  _atom_site_type_symbol
  _atom_site_label
  _atom_site_symmetry_multiplicity
  _atom_site_fract_x
  _atom_site_fract_y
  _atom_site_fract_z
  _atom_site_occupancy
  S   S1        1.0  1.00000  0.33333  0.63924  1.0000
  S   S2        1.0  1.00000  0.33333  0.86076  1.0000
  Mo   Mo1        1.0  0.50000  0.16667  0.75000  1.0000
  Mo   Mo2        1.0  0.00000  0.66667  0.75000  1.0000
  S   S3        1.0  0.50000  0.83333  0.63924  1.0000
  S   S4        1.0  0.50000  0.83333  0.86076  1.0000
